%chk=ketone.chk
%mem=10gb
%nprocshared=28
#opt freq wb97xd def2svp scf=xqc

[No Title]

0 1
   C  13.076554  -7.010574   0.055393 
   C  13.778579  -8.240561   0.059834 
   C  15.216979  -8.228210   0.061940 
   C  15.886005  -6.977417   0.059413 
   C  15.172867  -5.778247   0.055059 
   C  13.752333  -5.786278   0.052944 
   C  13.068639  -9.472639   0.062220 
   C  12.466490 -10.548909   0.064354 
   C  11.785520 -11.795965   0.066549 
   C  10.368004 -11.839131   0.064391 
   C   9.684813 -13.055574   0.066507 
   C  10.400749 -14.282814   0.070940 
   C  11.799140 -14.258208   0.073093 
   C  12.513797 -13.035824   0.071002 
   C  13.936115 -13.035506   0.073207 
   C  15.168806 -13.020839   0.075155 
   C  16.590720 -12.990043   0.077207 
   C  17.330814 -14.197230   0.081756 
   C  18.729341 -14.193543   0.083881 
   C  19.419480 -12.951788   0.081467 
   C  18.711327 -11.749643   0.076961 
   C  17.292977 -11.734888   0.074733 
   C  15.957190  -9.440910   0.066419 
   C  16.585677 -10.502639   0.070128 
   O  15.735587  -4.527225   0.052327 
   O  13.069574  -4.613979   0.048639 
   O   8.320353 -13.192128   0.064683 
   O   9.725411 -15.458824   0.073016 
   O  19.428548 -15.355699   0.088226 
   O  20.786837 -13.059904   0.083942 
   H  11.978023  -7.004667   0.053684 
   H  16.987226  -6.961650   0.061056 
   H   9.805665 -10.892247   0.061009 
   H  12.342542 -15.212938   0.076463 
   H  16.806951 -15.162824   0.083652 
   H  19.254971 -10.791837   0.075115 
   H  16.706708  -4.604261   0.054101 
   H  13.740281  -3.899715   0.047673 
   H   7.902146 -12.312179   0.061021 
   H   8.771677 -15.234092   0.070633 
   H  20.377506 -15.111855   0.088757 
   H  21.186285 -12.171401   0.081080 


